{
   "completed_at" : "20190827T191116Z",
   "completed_status" : "Success",
   "created_at" : "20190827T190844Z",
   "current_step" : 0,
   "eplusout_err" : "Program Version,EnergyPlus, Version 9.1.0-08d2e308bb, YMD=2019.08.27 12:09,\n   ** Warning ** CheckEnvironmentSpecifications: SimulationControl specified doing design day simulations, but no design environments specified.\n   **   ~~~   ** ...No design environment results produced. For these results, add appropriate SizingPeriod:* objects for your simulation.\n   ** Warning ** GetVertices: Floor is not oriented correctly! Tilt angle=[153.6], should be near 180, Surface=\"B-03_101-E-F-346\", in Zone=\"DEFAULT\".\n   ** Warning ** GetVertices: Floor is not oriented correctly! Tilt angle=[153.8], should be near 180, Surface=\"B-03_101-E-F-347\", in Zone=\"DEFAULT\".\n   ** Warning ** GetVertices: Floor is not oriented correctly! Tilt angle=[153.6], should be near 180, Surface=\"B-03_102-E-F-364\", in Zone=\"DEFAULT\".\n   ** Warning ** GetVertices: Floor is not oriented correctly! Tilt angle=[153.8], should be near 180, Surface=\"B-03_102-E-F-366\", in Zone=\"DEFAULT\".\n   ** Warning ** GetVertices: Roof/Ceiling is upside down! Tilt angle=[130.9], should be near 0, Surface=\"T-03_100-E-R-323\", in Zone=\"DEFAULT\".\n   **   ~~~   ** Automatic fix is attempted.\n   ** Warning ** GetVertices: Roof/Ceiling is upside down! Tilt angle=[130.9], should be near 0, Surface=\"T-03_100-E-R-333\", in Zone=\"DEFAULT\".\n   **   ~~~   ** Automatic fix is attempted.\n   ** Warning ** GetSurfaceData: Entered Zone Floor Areas differ from calculated Zone Floor Area(s).\n   **   ~~~   ** ...use Output:Diagnostics,DisplayExtraWarnings; to show more details on individual zones.\n   ** Warning ** GetSurfaceData: There are 5 coincident/collinear vertices; These have been deleted unless the deletion would bring the number of surface sides < 3.\n   **   ~~~   ** For explicit details on each problem surface, use Output:Diagnostics,DisplayExtraWarnings;\n   ** Warning ** ProcessSurfaceVertices: Possible non-planar surface:\"X-S-501\", Max \"out of line\"=3.00212E-004 at Vertex # 3\n   ** Warning ** ProcessSurfaceVertices: Possible non-planar surface:\"X-S-503\", Max \"out of line\"=1.30861E-003 at Vertex # 5\n   ** Warning ** ProcessSurfaceVertices: Possible non-planar surface:\"X-S-505\", Max \"out of line\"=9.93141E-004 at Vertex # 1\n   ** Warning ** ProcessSurfaceVertices: Possible non-planar surface:\"X-S-507\", Max \"out of line\"=9.84975E-004 at Vertex # 4\n   ** Warning ** ProcessSurfaceVertices: Possible non-planar surface:\"X-S-509\", Max \"out of line\"=7.41214E-004 at Vertex # 3\n   ** Warning ** ProcessSurfaceVertices: Possible non-planar surface:\"X-S-524\", Max \"out of line\"=1.50354E-004 at Vertex # 2\n   ** Warning ** ProcessSurfaceVertices: Possible non-planar surface:\"X-S-527\", Max \"out of line\"=1.29542E-004 at Vertex # 4\n   ** Warning ** ProcessSurfaceVertices: Possible non-planar surface:\"E-03_102-E-W-369\", Max \"out of line\"=2.00435E-003 at Vertex # 2\n   ** Severe  ** For zone: DEFAULT it is not possible to calculate the volume from the surrounding surfaces so either provide the volume value or define all the surfaces to fully enclose the zone.\n   ** Warning ** Indicated Zone Volume <= 0.0 for Zone=DEFAULT\n   **   ~~~   ** The calculated Zone Volume was=0.00\n   **   ~~~   ** The simulation will continue with the Zone Volume set to 10.0 m3. \n   **   ~~~   ** ...use Output:Diagnostics,DisplayExtraWarnings; to show more details on individual zones.\n   ** Warning ** CalculateZoneVolume: 1 zone is not fully enclosed. For more details use:  Output:Diagnostics,DisplayExtrawarnings; \n   ** Warning ** CheckUsedConstructions: There are 4 nominally unused constructions in input.\n   **   ~~~   ** For explicit details on each unused construction, use Output:Diagnostics,DisplayExtraWarnings;\n   ** Warning ** DetermineShadowingCombinations: There are 46 surfaces which are receiving surfaces and are non-convex.\n   **   ~~~   ** ...Shadowing values may be inaccurate. Check .shd report file for more surface shading details\n   **   ~~~   ** ...Add Output:Diagnostics,DisplayExtraWarnings; to see individual warnings for each surface.\n   ** Severe  ** DetermineShadowingCombinations: There are 39 surfaces which are casting surfaces and are non-convex.\n   **   ~~~   ** ...Shadowing values may be inaccurate. Check .shd report file for more surface shading details\n   **   ~~~   ** ...Add Output:Diagnostics,DisplayExtraWarnings; to see individual severes for each surface.\n   ** Warning ** Output:Meter: invalid Key Name=\"ELECTRICITY:FACILITY\" - not found.\n   ** Warning ** Output:Meter: invalid Key Name=\"GAS:FACILITY\" - not found.\n   ** Warning ** Output:Meter: invalid Key Name=\"DISTRICTCOOLING:FACILITY\" - not found.\n   ** Warning ** Output:Meter: invalid Key Name=\"DISTRICTHEATING:FACILITY\" - not found.\n   ** Warning ** Output:Meter:MeterFileOnly: invalid Key Name=\"GAS:FACILITY\" - not found.\n   ** Warning ** Output:Meter:MeterFileOnly: invalid Key Name=\"ELECTRICITY:FACILITY\" - not found.\n   ** Warning ** Output:Meter:MeterFileOnly: invalid Key Name=\"ELECTRICITY:FACILITY\" - not found.\n   ************* Testing Individual Branch Integrity\n   ************* All Branches passed integrity testing\n   ************* Testing Individual Supply Air Path Integrity\n   ************* All Supply Air Paths passed integrity testing\n   ************* Testing Individual Return Air Path Integrity\n   ************* All Return Air Paths passed integrity testing\n   ************* No node connection errors were found.\n   ************* Beginning Simulation\n   ** Warning ** Processing Monthly Tabular Reports: Variable names not valid for this simulation\n   **   ~~~   ** ...use Output:Diagnostics,DisplayExtraWarnings; to show more details on individual variables.\n   ** Warning ** The resource referenced by LifeCycleCost:UsePriceEscalation= \"U.S. AVG  COMMERCIAL-ELECTRICITY\" has no energy cost. \n   **   ~~~   ** ... It is likely that the wrong resource is used. The resource should match the meter used in Utility:Tariff.\n   ** Warning ** The resource referenced by LifeCycleCost:UsePriceEscalation= \"U.S. AVG  COMMERCIAL-DISTILLATE OIL\" has no energy cost. \n   **   ~~~   ** ... It is likely that the wrong resource is used. The resource should match the meter used in Utility:Tariff.\n   ** Warning ** The resource referenced by LifeCycleCost:UsePriceEscalation= \"U.S. AVG  COMMERCIAL-RESIDUAL OIL\" has no energy cost. \n   **   ~~~   ** ... It is likely that the wrong resource is used. The resource should match the meter used in Utility:Tariff.\n   ** Warning ** The resource referenced by LifeCycleCost:UsePriceEscalation= \"U.S. AVG  COMMERCIAL-NATURAL GAS\" has no energy cost. \n   **   ~~~   ** ... It is likely that the wrong resource is used. The resource should match the meter used in Utility:Tariff.\n   ** Warning ** The resource referenced by LifeCycleCost:UsePriceEscalation= \"U.S. AVG  COMMERCIAL-COAL\" has no energy cost. \n   **   ~~~   ** ... It is likely that the wrong resource is used. The resource should match the meter used in Utility:Tariff.\n   ************* Simulation Error Summary *************\n   ************* There are 3 unused schedules in input.\n   ************* There are 3 unused week schedules in input.\n   ************* There are 3 unused day schedules in input.\n   ************* Use Output:Diagnostics,DisplayUnusedSchedules; to see them.\n   *************\n   ************* ===== Recurring Surface Error Summary =====\n   ************* The following surface error messages occurred.\n   *************\n   ************* Base Surface does not surround subsurface errors occuring...\n   ************* Check that the GlobalGeometryRules object is expressing the proper starting corner and direction [CounterClockwise/Clockwise]\n   *************\n   ** Warning ** Base surface does not surround subsurface (CHKSBS), Overlap Status=Partial-Overlap\n   **   ~~~   **   The base surround errors occurred 1 times.\n   **   ~~~   ** Surface \"E-00_107-E-W-58\" overlaps SubSurface \"E-00_107-E-W-58-D-1\"\n   ** Warning ** Base surface does not surround subsurface (CHKSBS), Overlap Status=Partial-Overlap\n   **   ~~~   **   The base surround errors occurred 1 times.\n   **   ~~~   ** Surface \"N-02_104-E-W-268\" overlaps SubSurface \"N-02_104-E-W-268-D-1\"\n   ** Warning ** Base surface does not surround subsurface (CHKSBS), Overlap Status=No-Overlap\n   **   ~~~   **   The base surround errors occurred 1 times.\n   **   ~~~   ** Surface \"S-02_100-E-W-184\" misses SubSurface \"S-02_100-E-W-184-D-1\"\n   ** Warning ** Base surface does not surround subsurface (CHKSBS), Overlap Status=No-Overlap\n   **   ~~~   **   The base surround errors occurred 1 times.\n   **   ~~~   ** Surface \"W-00_106-E-W-46\" misses SubSurface \"W-00_106-E-W-46-D-1\"\n   ** Warning ** Base surface does not surround subsurface (CHKSBS), Overlap Status=Partial-Overlap\n   **   ~~~   **   The base surround errors occurred 1 times.\n   **   ~~~   ** Surface \"W-1B_101-E-W-175\" overlaps SubSurface \"W-1B_101-E-W-175-D-2\"\n   *************\n   **   ~~~   **   The base surround errors occurred 5 times (total).\n   *************\n   *************\n   ************* ===== Final Error Summary =====\n   ************* The following error categories occurred.  Consider correcting or noting.\n   ************* Nominally Unused Constructions\n   ************* ..The nominally unused constructions warning is provided to alert you to potential conditions that can cause\n   ************* ..extra time during simulation. Each construction is calculated by the algorithm indicated in the HeatBalanceAlgorithm\n   ************* ..object. You may remove the constructions indicated (when you use the DisplayExtraWarnings option).\n   *************\n   ************* EnergyPlus Warmup Error Summary. During Warmup: 0 Warning; 0 Severe Errors.\n   ************* EnergyPlus Sizing Error Summary. During Sizing: 0 Warning; 0 Severe Errors.\n   ************* EnergyPlus Completed Successfully-- 88 Warning; 40 Severe Errors; Elapsed Time=00hr 02min  8.64sec\n",
   "hash" : "44893223",
   "seed_file" : "../test.osm",
   "started_at" : "20190827T190905Z",
   "steps" : [],
   "updated_at" : "20190827T191116Z",
   "weather_file" : "USA_CA_San.Francisco.724940_TMY2.epw"
}
