{
   "completed_at" : "20190830T203539Z",
   "completed_status" : "Fail",
   "created_at" : "20190830T203514Z",
   "current_step" : 0,
   "eplusout_err" : "Program Version,EnergyPlus, Version 9.1.0-08d2e308bb, YMD=2019.08.30 13:35,\n   ** Severe  ** <root>[Construction][Ceiling] - Missing required property 'outside_layer'.\n   ** Severe  ** <root>[FenestrationSurface:Detailed][E-00_111-00_113-I-W-66-D-1] - Missing required property 'construction_name'.\n   **  Fatal  ** Errors occurred on processing input file. Preceding condition(s) cause termination.\n   ...Summary of Errors that led to program termination:\n   ..... Reference severe error count=2\n   ..... Last severe error=<root>[FenestrationSurface:Detailed][E-00_111-00_113-I-W-66-D-1] - Missing required property 'construction_name'.\n   ************* Warning:  Node connection errors not checked - most system input has not been read (see previous warning).\n   ************* Fatal error -- final processing.  Program exited before simulations began.  See previous error messages.\n   ************* EnergyPlus Warmup Error Summary. During Warmup: 0 Warning; 0 Severe Errors.\n   ************* EnergyPlus Sizing Error Summary. During Sizing: 0 Warning; 0 Severe Errors.\n   ************* EnergyPlus Terminated--Fatal Error Detected. 0 Warning; 2 Severe Errors; Elapsed Time=00hr 00min  0.52sec\n",
   "hash" : "592DD062",
   "seed_file" : "../test.osm",
   "started_at" : "20190830T203534Z",
   "steps" : [],
   "updated_at" : "20190830T203539Z",
   "weather_file" : "USA_CA_San.Francisco.724940_TMY2.epw"
}
