{
   "completed_at" : "20190829T232708Z",
   "completed_status" : "Success",
   "created_at" : "20190829T220628Z",
   "current_step" : 0,
   "eplusout_err" : "Program Version,EnergyPlus, Version 9.1.0-08d2e308bb, YMD=2019.08.29 15:07,\n   ** Warning ** CheckEnvironmentSpecifications: SimulationControl specified doing design day simulations, but no design environments specified.\n   **   ~~~   ** ...No design environment results produced. For these results, add appropriate SizingPeriod:* objects for your simulation.\n   ** Severe  ** For zone: DEFAULT it is not possible to calculate the volume from the surrounding surfaces so either provide the volume value or define all the surfaces to fully enclose the zone.\n   ** Warning ** Indicated Zone Volume <= 0.0 for Zone=DEFAULT\n   **   ~~~   ** The calculated Zone Volume was=0.00\n   **   ~~~   ** The simulation will continue with the Zone Volume set to 10.0 m3. \n   **   ~~~   ** ...use Output:Diagnostics,DisplayExtraWarnings; to show more details on individual zones.\n   ** Warning ** CalculateZoneVolume: 1 zone is not fully enclosed. For more details use:  Output:Diagnostics,DisplayExtrawarnings; \n   ** Warning ** CheckUsedConstructions: There are 7 nominally unused constructions in input.\n   **   ~~~   ** For explicit details on each unused construction, use Output:Diagnostics,DisplayExtraWarnings;\n   ** Severe  ** ComputeIntSolarAbsorpFactors: Solar distribution model is set to place solar gains on the zone floor,\n   **   ~~~   ** but Zone =\"DEFAULT\" floor cannot absorb any solar gains. \n   **   ~~~   ** Check the solar absorptance of the inside layer of the floor surface construction/material.\n   **   ~~~   ** Solar gains will be spread evenly on all surfaces in the zone, and the simulation continues...\n   ** Warning ** DetermineShadowingCombinations: There are 6 surfaces which are receiving surfaces and are non-convex.\n   **   ~~~   ** ...Shadowing values may be inaccurate. Check .shd report file for more surface shading details\n   **   ~~~   ** ...Add Output:Diagnostics,DisplayExtraWarnings; to see individual warnings for each surface.\n   ** Warning ** Output:Meter: invalid Key Name=\"ELECTRICITY:FACILITY\" - not found.\n   ** Warning ** Output:Meter: invalid Key Name=\"GAS:FACILITY\" - not found.\n   ** Warning ** Output:Meter: invalid Key Name=\"DISTRICTCOOLING:FACILITY\" - not found.\n   ** Warning ** Output:Meter: invalid Key Name=\"DISTRICTHEATING:FACILITY\" - not found.\n   ** Warning ** Output:Meter:MeterFileOnly: invalid Key Name=\"GAS:FACILITY\" - not found.\n   ** Warning ** Output:Meter:MeterFileOnly: invalid Key Name=\"ELECTRICITY:FACILITY\" - not found.\n   ** Warning ** Output:Meter:MeterFileOnly: invalid Key Name=\"ELECTRICITY:FACILITY\" - not found.\n   ************* Testing Individual Branch Integrity\n   ************* All Branches passed integrity testing\n   ************* Testing Individual Supply Air Path Integrity\n   ************* All Supply Air Paths passed integrity testing\n   ************* Testing Individual Return Air Path Integrity\n   ************* All Return Air Paths passed integrity testing\n   ************* No node connection errors were found.\n   ************* Beginning Simulation\n   ** Warning ** Processing Monthly Tabular Reports: Variable names not valid for this simulation\n   **   ~~~   ** ...use Output:Diagnostics,DisplayExtraWarnings; to show more details on individual variables.\n   ** Warning ** The resource referenced by LifeCycleCost:UsePriceEscalation= \"U.S. AVG  COMMERCIAL-ELECTRICITY\" has no energy cost. \n   **   ~~~   ** ... It is likely that the wrong resource is used. The resource should match the meter used in Utility:Tariff.\n   ** Warning ** The resource referenced by LifeCycleCost:UsePriceEscalation= \"U.S. AVG  COMMERCIAL-DISTILLATE OIL\" has no energy cost. \n   **   ~~~   ** ... It is likely that the wrong resource is used. The resource should match the meter used in Utility:Tariff.\n   ** Warning ** The resource referenced by LifeCycleCost:UsePriceEscalation= \"U.S. AVG  COMMERCIAL-RESIDUAL OIL\" has no energy cost. \n   **   ~~~   ** ... It is likely that the wrong resource is used. The resource should match the meter used in Utility:Tariff.\n   ** Warning ** The resource referenced by LifeCycleCost:UsePriceEscalation= \"U.S. AVG  COMMERCIAL-NATURAL GAS\" has no energy cost. \n   **   ~~~   ** ... It is likely that the wrong resource is used. The resource should match the meter used in Utility:Tariff.\n   ** Warning ** The resource referenced by LifeCycleCost:UsePriceEscalation= \"U.S. AVG  COMMERCIAL-COAL\" has no energy cost. \n   **   ~~~   ** ... It is likely that the wrong resource is used. The resource should match the meter used in Utility:Tariff.\n   ************* Simulation Error Summary *************\n   ************* There are 3 unused schedules in input.\n   ************* There are 3 unused week schedules in input.\n   ************* There are 3 unused day schedules in input.\n   ************* Use Output:Diagnostics,DisplayUnusedSchedules; to see them.\n   *************\n   ************* ===== Recurring Surface Error Summary =====\n   ************* The following surface error messages occurred.\n   *************\n   ************* Base Surface does not surround subsurface errors occuring...\n   ************* Check that the GlobalGeometryRules object is expressing the proper starting corner and direction [CounterClockwise/Clockwise]\n   *************\n   ** Warning ** Base surface does not surround subsurface (CHKSBS), Overlap Status=No-Overlap\n   **   ~~~   **   The base surround errors occurred 1 times.\n   **   ~~~   ** Surface \"E-1OG_129-E-W-229\" misses SubSurface \"E-1OG_129-E-W-229-W-1\"\n   ** Warning ** Base surface does not surround subsurface (CHKSBS), Overlap Status=No-Overlap\n   **   ~~~   **   The base surround errors occurred 1 times.\n   **   ~~~   ** Surface \"E-EOG_108-E-W-1961\" misses SubSurface \"E-EOG_108-E-W-1961-W-1\"\n   ** Warning ** Base surface does not surround subsurface (CHKSBS), Overlap Status=Partial-Overlap\n   **   ~~~   **   The base surround errors occurred 1 times.\n   **   ~~~   ** Surface \"E-EOG_109-E-W-1973\" overlaps SubSurface \"E-EOG_109-E-W-1973-W-1\"\n   ** Warning ** Base surface does not surround subsurface (CHKSBS), Overlap Status=Partial-Overlap\n   **   ~~~   **   The base surround errors occurred 2 times.\n   **   ~~~   ** Surface \"E-EOG_117-E-W-2025\" overlaps SubSurface \"E-EOG_117-E-W-2025-W-1\"\n   **   ~~~   ** Surface \"E-EOG_117-E-W-2025\" overlaps SubSurface \"E-EOG_117-E-W-2025-W-2\"\n   ** Warning ** Base surface does not surround subsurface (CHKSBS), Overlap Status=Partial-Overlap\n   **   ~~~   **   The base surround errors occurred 1 times.\n   **   ~~~   ** Surface \"E-EOG_124-E-W-2071\" overlaps SubSurface \"E-EOG_124-E-W-2071-W-1\"\n   ** Warning ** Base surface does not surround subsurface (CHKSBS), Overlap Status=No-Overlap\n   **   ~~~   **   The base surround errors occurred 6 times.\n   **   ~~~   ** Surface \"E-EOG_125-E-W-2074\" misses SubSurface \"E-EOG_125-E-W-2074-W-1\"\n   **   ~~~   ** Surface \"E-EOG_125-E-W-2074\" misses SubSurface \"E-EOG_125-E-W-2074-W-3\"\n   **   ~~~   ** Surface \"E-EOG_125-E-W-2074\" misses SubSurface \"E-EOG_125-E-W-2074-W-4\"\n   **   ~~~   ** Surface \"E-EOG_125-E-W-2074\" misses SubSurface \"E-EOG_125-E-W-2074-W-5\"\n   **   ~~~   ** Surface \"E-EOG_125-E-W-2074\" misses SubSurface \"E-EOG_125-E-W-2074-W-6\"\n   **   ~~~   ** Surface \"E-EOG_125-E-W-2074\" misses SubSurface \"E-EOG_125-E-W-2074-W-7\"\n   ** Warning ** Base surface does not surround subsurface (CHKSBS), Overlap Status=Partial-Overlap\n   **   ~~~   **   The base surround errors occurred 1 times.\n   **   ~~~   ** Surface \"E-EOG_128-E-W-2093\" overlaps SubSurface \"E-EOG_128-E-W-2093-W-1\"\n   ** Warning ** Base surface does not surround subsurface (CHKSBS), Overlap Status=No-Overlap\n   **   ~~~   **   The base surround errors occurred 1 times.\n   **   ~~~   ** Surface \"E-EOG_130-E-W-2099\" misses SubSurface \"E-EOG_130-E-W-2099-W-1\"\n   ** Warning ** Base surface does not surround subsurface (CHKSBS), Overlap Status=Partial-Overlap\n   **   ~~~   **   The base surround errors occurred 1 times.\n   **   ~~~   ** Surface \"E-EOG_131-E-W-2104\" overlaps SubSurface \"E-EOG_131-E-W-2104-W-1\"\n   ** Warning ** Base surface does not surround subsurface (CHKSBS), Overlap Status=Partial-Overlap\n   **   ~~~   **   The base surround errors occurred 1 times.\n   **   ~~~   ** Surface \"E-EOG_134-E-W-2120\" overlaps SubSurface \"E-EOG_134-E-W-2120-W-1\"\n   ** Warning ** Base surface does not surround subsurface (CHKSBS), Overlap Status=Partial-Overlap\n   **   ~~~   **   The base surround errors occurred 2 times.\n   **   ~~~   ** Surface \"E-EOG_139-E-W-2127\" overlaps SubSurface \"E-EOG_139-E-W-2127-D-2\"\n   **   ~~~   ** Surface \"E-EOG_139-E-W-2127\" overlaps SubSurface \"E-EOG_139-E-W-2127-W-1\"\n   ** Warning ** Base surface does not surround subsurface (CHKSBS), Overlap Status=Partial-Overlap\n   **   ~~~   **   The base surround errors occurred 1 times.\n   **   ~~~   ** Surface \"N-EOG_112-E-W-1992\" overlaps SubSurface \"N-EOG_112-E-W-1992-W-1\"\n   ** Warning ** Base surface does not surround subsurface (CHKSBS), Overlap Status=Partial-Overlap\n   **   ~~~   **   The base surround errors occurred 1 times.\n   **   ~~~   ** Surface \"N-EOG_116-E-W-2014\" overlaps SubSurface \"N-EOG_116-E-W-2014-W-1\"\n   ** Warning ** Base surface does not surround subsurface (CHKSBS), Overlap Status=No-Overlap\n   **   ~~~   **   The base surround errors occurred 7 times.\n   **   ~~~   ** Surface \"N-EOG_117-E-W-2023\" misses SubSurface \"N-EOG_117-E-W-2023-W-1\"\n   **   ~~~   ** Surface \"N-EOG_117-E-W-2023\" misses SubSurface \"N-EOG_117-E-W-2023-W-2\"\n   **   ~~~   ** Surface \"N-EOG_117-E-W-2023\" misses SubSurface \"N-EOG_117-E-W-2023-W-3\"\n   **   ~~~   ** Surface \"N-EOG_117-E-W-2023\" misses SubSurface \"N-EOG_117-E-W-2023-W-4\"\n   **   ~~~   ** Surface \"N-EOG_117-E-W-2023\" misses SubSurface \"N-EOG_117-E-W-2023-W-5\"\n   **   ~~~   ** Surface \"N-EOG_117-E-W-2023\" misses SubSurface \"N-EOG_117-E-W-2023-W-6\"\n   **   ~~~   ** Surface \"N-EOG_117-E-W-2023\" misses SubSurface \"N-EOG_117-E-W-2023-W-7\"\n   ** Warning ** Base surface does not surround subsurface (CHKSBS), Overlap Status=No-Overlap\n   **   ~~~   **   The base surround errors occurred 2 times.\n   **   ~~~   ** Surface \"N-EOG_130-E-W-2098\" misses SubSurface \"N-EOG_130-E-W-2098-W-1\"\n   **   ~~~   ** Surface \"N-EOG_130-E-W-2098\" misses SubSurface \"N-EOG_130-E-W-2098-W-2\"\n   ** Warning ** Base surface does not surround subsurface (CHKSBS), Overlap Status=No-Overlap\n   **   ~~~   **   The base surround errors occurred 2 times.\n   **   ~~~   ** Surface \"N-EOG_133-E-W-2116\" misses SubSurface \"N-EOG_133-E-W-2116-W-1\"\n   **   ~~~   ** Surface \"N-EOG_133-E-W-2116\" misses SubSurface \"N-EOG_133-E-W-2116-W-2\"\n   ** Warning ** Base surface does not surround subsurface (CHKSBS), Overlap Status=Partial-Overlap\n   **   ~~~   **   The base surround errors occurred 1 times.\n   **   ~~~   ** Surface \"S-6OG_114-E-W-1797\" overlaps SubSurface \"S-6OG_114-E-W-1797-D-1\"\n   ** Warning ** Base surface does not surround subsurface (CHKSBS), Overlap Status=Partial-Overlap\n   **   ~~~   **   The base surround errors occurred 1 times.\n   **   ~~~   ** Surface \"S-EOG_130-E-W-2100\" overlaps SubSurface \"S-EOG_130-E-W-2100-W-1\"\n   ** Warning ** Base surface does not surround subsurface (CHKSBS), Overlap Status=Partial-Overlap\n   **   ~~~   **   The base surround errors occurred 1 times.\n   **   ~~~   ** Surface \"S-EOG_133-E-W-2117\" overlaps SubSurface \"S-EOG_133-E-W-2117-W-1\"\n   ** Warning ** Base surface does not surround subsurface (CHKSBS), Overlap Status=No-Overlap\n   **   ~~~   **   The base surround errors occurred 1 times.\n   **   ~~~   ** Surface \"W-1OG_129-E-W-223\" misses SubSurface \"W-1OG_129-E-W-223-W-2\"\n   ** Warning ** Base surface does not surround subsurface (CHKSBS), Overlap Status=No-Overlap\n   **   ~~~   **   The base surround errors occurred 1 times.\n   **   ~~~   ** Surface \"W-1OG_156-E-W-419\" misses SubSurface \"W-1OG_156-E-W-419-W-1\"\n   ** Warning ** Base surface does not surround subsurface (CHKSBS), Overlap Status=Partial-Overlap\n   **   ~~~   **   The base surround errors occurred 1 times.\n   **   ~~~   ** Surface \"W-2OG_133-E-W-645\" overlaps SubSurface \"W-2OG_133-E-W-645-D-1\"\n   ** Warning ** Base surface does not surround subsurface (CHKSBS), Overlap Status=Partial-Overlap\n   **   ~~~   **   The base surround errors occurred 1 times.\n   **   ~~~   ** Surface \"W-2OG_154-E-W-744\" overlaps SubSurface \"W-2OG_154-E-W-744-D-1\"\n   ** Warning ** Base surface does not surround subsurface (CHKSBS), Overlap Status=Partial-Overlap\n   **   ~~~   **   The base surround errors occurred 1 times.\n   **   ~~~   ** Surface \"W-EOG_108-E-W-1960\" overlaps SubSurface \"W-EOG_108-E-W-1960-W-1\"\n   ** Warning ** Base surface does not surround subsurface (CHKSBS), Overlap Status=Partial-Overlap\n   **   ~~~   **   The base surround errors occurred 1 times.\n   **   ~~~   ** Surface \"W-EOG_132-E-W-2112\" overlaps SubSurface \"W-EOG_132-E-W-2112-W-1\"\n   ** Warning ** Base surface does not surround subsurface (CHKSBS), Overlap Status=No-Overlap\n   **   ~~~   **   The base surround errors occurred 1 times.\n   **   ~~~   ** Surface \"W-EOG_133-E-W-2115\" misses SubSurface \"W-EOG_133-E-W-2115-W-1\"\n   ** Warning ** Base surface does not surround subsurface (CHKSBS), Overlap Status=Partial-Overlap\n   **   ~~~   **   The base surround errors occurred 1 times.\n   **   ~~~   ** Surface \"W-EOG_138-E-W-2125\" overlaps SubSurface \"W-EOG_138-E-W-2125-W-1\"\n   ** Warning ** Base surface does not surround subsurface (CHKSBS), Overlap Status=No-Overlap\n   **   ~~~   **   The base surround errors occurred 3 times.\n   **   ~~~   ** Surface \"W-EOG_140-E-W-2129\" misses SubSurface \"W-EOG_140-E-W-2129-D-3\"\n   **   ~~~   ** Surface \"W-EOG_140-E-W-2129\" misses SubSurface \"W-EOG_140-E-W-2129-D-4\"\n   **   ~~~   ** Surface \"W-EOG_140-E-W-2129\" misses SubSurface \"W-EOG_140-E-W-2129-W-1\"\n   *************\n   **   ~~~   **   The base surround errors occurred 45 times (total).\n   *************\n   *************\n   ************* ===== Final Error Summary =====\n   ************* The following error categories occurred.  Consider correcting or noting.\n   ************* Nominally Unused Constructions\n   ************* ..The nominally unused constructions warning is provided to alert you to potential conditions that can cause\n   ************* ..extra time during simulation. Each construction is calculated by the algorithm indicated in the HeatBalanceAlgorithm\n   ************* ..object. You may remove the constructions indicated (when you use the DisplayExtraWarnings option).\n   *************\n   ************* EnergyPlus Warmup Error Summary. During Warmup: 0 Warning; 0 Severe Errors.\n   ************* EnergyPlus Sizing Error Summary. During Sizing: 0 Warning; 0 Severe Errors.\n   ************* EnergyPlus Completed Successfully-- 68 Warning; 2 Severe Errors; Elapsed Time=01hr 19min 37.06sec\n",
   "hash" : "010FCC0C",
   "seed_file" : "../test.osm",
   "started_at" : "20190829T220708Z",
   "steps" : [],
   "updated_at" : "20190829T232708Z",
   "weather_file" : "USA_CA_San.Francisco.724940_TMY2.epw"
}
