Program Version,EnergyPlus, Version 9.1.0-08d2e308bb, YMD=2019.08.30 13:35,
   ** Severe  ** <root>[Construction][Ceiling] - Missing required property 'outside_layer'.
   ** Severe  ** <root>[FenestrationSurface:Detailed][E-00_111-00_113-I-W-66-D-1] - Missing required property 'construction_name'.
   **  Fatal  ** Errors occurred on processing input file. Preceding condition(s) cause termination.
   ...Summary of Errors that led to program termination:
   ..... Reference severe error count=2
   ..... Last severe error=<root>[FenestrationSurface:Detailed][E-00_111-00_113-I-W-66-D-1] - Missing required property 'construction_name'.
   ************* Warning:  Node connection errors not checked - most system input has not been read (see previous warning).
   ************* Fatal error -- final processing.  Program exited before simulations began.  See previous error messages.
   ************* EnergyPlus Warmup Error Summary. During Warmup: 0 Warning; 0 Severe Errors.
   ************* EnergyPlus Sizing Error Summary. During Sizing: 0 Warning; 0 Severe Errors.
   ************* EnergyPlus Terminated--Fatal Error Detected. 0 Warning; 2 Severe Errors; Elapsed Time=00hr 00min  0.52sec
