Program Version,EnergyPlus, Version 9.1.0-08d2e308bb, YMD=2019.08.27 12:09,
   ** Warning ** CheckEnvironmentSpecifications: SimulationControl specified doing design day simulations, but no design environments specified.
   **   ~~~   ** ...No design environment results produced. For these results, add appropriate SizingPeriod:* objects for your simulation.
   ** Warning ** GetVertices: Floor is not oriented correctly! Tilt angle=[153.6], should be near 180, Surface="B-03_101-E-F-346", in Zone="DEFAULT".
   ** Warning ** GetVertices: Floor is not oriented correctly! Tilt angle=[153.8], should be near 180, Surface="B-03_101-E-F-347", in Zone="DEFAULT".
   ** Warning ** GetVertices: Floor is not oriented correctly! Tilt angle=[153.6], should be near 180, Surface="B-03_102-E-F-364", in Zone="DEFAULT".
   ** Warning ** GetVertices: Floor is not oriented correctly! Tilt angle=[153.8], should be near 180, Surface="B-03_102-E-F-366", in Zone="DEFAULT".
   ** Warning ** GetVertices: Roof/Ceiling is upside down! Tilt angle=[130.9], should be near 0, Surface="T-03_100-E-R-323", in Zone="DEFAULT".
   **   ~~~   ** Automatic fix is attempted.
   ** Warning ** GetVertices: Roof/Ceiling is upside down! Tilt angle=[130.9], should be near 0, Surface="T-03_100-E-R-333", in Zone="DEFAULT".
   **   ~~~   ** Automatic fix is attempted.
   ** Warning ** GetSurfaceData: Entered Zone Floor Areas differ from calculated Zone Floor Area(s).
   **   ~~~   ** ...use Output:Diagnostics,DisplayExtraWarnings; to show more details on individual zones.
   ** Warning ** GetSurfaceData: There are 5 coincident/collinear vertices; These have been deleted unless the deletion would bring the number of surface sides < 3.
   **   ~~~   ** For explicit details on each problem surface, use Output:Diagnostics,DisplayExtraWarnings;
   ** Warning ** ProcessSurfaceVertices: Possible non-planar surface:"X-S-501", Max "out of line"=3.00212E-004 at Vertex # 3
   ** Warning ** ProcessSurfaceVertices: Possible non-planar surface:"X-S-503", Max "out of line"=1.30861E-003 at Vertex # 5
   ** Warning ** ProcessSurfaceVertices: Possible non-planar surface:"X-S-505", Max "out of line"=9.93141E-004 at Vertex # 1
   ** Warning ** ProcessSurfaceVertices: Possible non-planar surface:"X-S-507", Max "out of line"=9.84975E-004 at Vertex # 4
   ** Warning ** ProcessSurfaceVertices: Possible non-planar surface:"X-S-509", Max "out of line"=7.41214E-004 at Vertex # 3
   ** Warning ** ProcessSurfaceVertices: Possible non-planar surface:"X-S-524", Max "out of line"=1.50354E-004 at Vertex # 2
   ** Warning ** ProcessSurfaceVertices: Possible non-planar surface:"X-S-527", Max "out of line"=1.29542E-004 at Vertex # 4
   ** Warning ** ProcessSurfaceVertices: Possible non-planar surface:"E-03_102-E-W-369", Max "out of line"=2.00435E-003 at Vertex # 2
   ** Severe  ** For zone: DEFAULT it is not possible to calculate the volume from the surrounding surfaces so either provide the volume value or define all the surfaces to fully enclose the zone.
   ** Warning ** Indicated Zone Volume <= 0.0 for Zone=DEFAULT
   **   ~~~   ** The calculated Zone Volume was=0.00
   **   ~~~   ** The simulation will continue with the Zone Volume set to 10.0 m3. 
   **   ~~~   ** ...use Output:Diagnostics,DisplayExtraWarnings; to show more details on individual zones.
   ** Warning ** CalculateZoneVolume: 1 zone is not fully enclosed. For more details use:  Output:Diagnostics,DisplayExtrawarnings; 
   ** Warning ** CheckUsedConstructions: There are 4 nominally unused constructions in input.
   **   ~~~   ** For explicit details on each unused construction, use Output:Diagnostics,DisplayExtraWarnings;
   ** Warning ** DetermineShadowingCombinations: There are 46 surfaces which are receiving surfaces and are non-convex.
   **   ~~~   ** ...Shadowing values may be inaccurate. Check .shd report file for more surface shading details
   **   ~~~   ** ...Add Output:Diagnostics,DisplayExtraWarnings; to see individual warnings for each surface.
   ** Severe  ** DetermineShadowingCombinations: There are 39 surfaces which are casting surfaces and are non-convex.
   **   ~~~   ** ...Shadowing values may be inaccurate. Check .shd report file for more surface shading details
   **   ~~~   ** ...Add Output:Diagnostics,DisplayExtraWarnings; to see individual severes for each surface.
   ** Warning ** Output:Meter: invalid Key Name="ELECTRICITY:FACILITY" - not found.
   ** Warning ** Output:Meter: invalid Key Name="GAS:FACILITY" - not found.
   ** Warning ** Output:Meter: invalid Key Name="DISTRICTCOOLING:FACILITY" - not found.
   ** Warning ** Output:Meter: invalid Key Name="DISTRICTHEATING:FACILITY" - not found.
   ** Warning ** Output:Meter:MeterFileOnly: invalid Key Name="GAS:FACILITY" - not found.
   ** Warning ** Output:Meter:MeterFileOnly: invalid Key Name="ELECTRICITY:FACILITY" - not found.
   ** Warning ** Output:Meter:MeterFileOnly: invalid Key Name="ELECTRICITY:FACILITY" - not found.
   ************* Testing Individual Branch Integrity
   ************* All Branches passed integrity testing
   ************* Testing Individual Supply Air Path Integrity
   ************* All Supply Air Paths passed integrity testing
   ************* Testing Individual Return Air Path Integrity
   ************* All Return Air Paths passed integrity testing
   ************* No node connection errors were found.
   ************* Beginning Simulation
   ** Warning ** Processing Monthly Tabular Reports: Variable names not valid for this simulation
   **   ~~~   ** ...use Output:Diagnostics,DisplayExtraWarnings; to show more details on individual variables.
   ** Warning ** The resource referenced by LifeCycleCost:UsePriceEscalation= "U.S. AVG  COMMERCIAL-ELECTRICITY" has no energy cost. 
   **   ~~~   ** ... It is likely that the wrong resource is used. The resource should match the meter used in Utility:Tariff.
   ** Warning ** The resource referenced by LifeCycleCost:UsePriceEscalation= "U.S. AVG  COMMERCIAL-DISTILLATE OIL" has no energy cost. 
   **   ~~~   ** ... It is likely that the wrong resource is used. The resource should match the meter used in Utility:Tariff.
   ** Warning ** The resource referenced by LifeCycleCost:UsePriceEscalation= "U.S. AVG  COMMERCIAL-RESIDUAL OIL" has no energy cost. 
   **   ~~~   ** ... It is likely that the wrong resource is used. The resource should match the meter used in Utility:Tariff.
   ** Warning ** The resource referenced by LifeCycleCost:UsePriceEscalation= "U.S. AVG  COMMERCIAL-NATURAL GAS" has no energy cost. 
   **   ~~~   ** ... It is likely that the wrong resource is used. The resource should match the meter used in Utility:Tariff.
   ** Warning ** The resource referenced by LifeCycleCost:UsePriceEscalation= "U.S. AVG  COMMERCIAL-COAL" has no energy cost. 
   **   ~~~   ** ... It is likely that the wrong resource is used. The resource should match the meter used in Utility:Tariff.
   ************* Simulation Error Summary *************
   ************* There are 3 unused schedules in input.
   ************* There are 3 unused week schedules in input.
   ************* There are 3 unused day schedules in input.
   ************* Use Output:Diagnostics,DisplayUnusedSchedules; to see them.
   *************
   ************* ===== Recurring Surface Error Summary =====
   ************* The following surface error messages occurred.
   *************
   ************* Base Surface does not surround subsurface errors occuring...
   ************* Check that the GlobalGeometryRules object is expressing the proper starting corner and direction [CounterClockwise/Clockwise]
   *************
   ** Warning ** Base surface does not surround subsurface (CHKSBS), Overlap Status=Partial-Overlap
   **   ~~~   **   The base surround errors occurred 1 times.
   **   ~~~   ** Surface "E-00_107-E-W-58" overlaps SubSurface "E-00_107-E-W-58-D-1"
   ** Warning ** Base surface does not surround subsurface (CHKSBS), Overlap Status=Partial-Overlap
   **   ~~~   **   The base surround errors occurred 1 times.
   **   ~~~   ** Surface "N-02_104-E-W-268" overlaps SubSurface "N-02_104-E-W-268-D-1"
   ** Warning ** Base surface does not surround subsurface (CHKSBS), Overlap Status=No-Overlap
   **   ~~~   **   The base surround errors occurred 1 times.
   **   ~~~   ** Surface "S-02_100-E-W-184" misses SubSurface "S-02_100-E-W-184-D-1"
   ** Warning ** Base surface does not surround subsurface (CHKSBS), Overlap Status=No-Overlap
   **   ~~~   **   The base surround errors occurred 1 times.
   **   ~~~   ** Surface "W-00_106-E-W-46" misses SubSurface "W-00_106-E-W-46-D-1"
   ** Warning ** Base surface does not surround subsurface (CHKSBS), Overlap Status=Partial-Overlap
   **   ~~~   **   The base surround errors occurred 1 times.
   **   ~~~   ** Surface "W-1B_101-E-W-175" overlaps SubSurface "W-1B_101-E-W-175-D-2"
   *************
   **   ~~~   **   The base surround errors occurred 5 times (total).
   *************
   *************
   ************* ===== Final Error Summary =====
   ************* The following error categories occurred.  Consider correcting or noting.
   ************* Nominally Unused Constructions
   ************* ..The nominally unused constructions warning is provided to alert you to potential conditions that can cause
   ************* ..extra time during simulation. Each construction is calculated by the algorithm indicated in the HeatBalanceAlgorithm
   ************* ..object. You may remove the constructions indicated (when you use the DisplayExtraWarnings option).
   *************
   ************* EnergyPlus Warmup Error Summary. During Warmup: 0 Warning; 0 Severe Errors.
   ************* EnergyPlus Sizing Error Summary. During Sizing: 0 Warning; 0 Severe Errors.
   ************* EnergyPlus Completed Successfully-- 88 Warning; 40 Severe Errors; Elapsed Time=00hr 02min  8.64sec
